<?xml version="1.0" encoding="UTF-8"?>

<!-- generated on 2024-08-03 23:47:17 by Eclipse SUMO netedit Version 1.14.1
<configuration xmlns:xsi="http://www.w3.org/2001/XMLSchema-instance" xsi:noNamespaceSchemaLocation="http://sumo.dlr.de/xsd/netconvertConfiguration.xsd">

    <input>
        <sumo-net-file value="C:\Users\Tame\Desktop\Randomly%20Network\Actuated\Data\NineInter.net.xml"/>
    </input>

    <output>
        <output-file value="C:\Users\Tame\Desktop\Randomly%20Network\Actuated\Data\NineInter.net.xml"/>
    </output>

    <processing>
        <geometry.min-radius.fix.railways value="false"/>
        <geometry.max-grade.fix value="false"/>
        <offset.disable-normalization value="true"/>
        <lefthand value="false"/>
    </processing>

    <junctions>
        <no-turnarounds value="true"/>
        <junctions.corner-detail value="5"/>
        <junctions.limit-turn-speed value="5.5"/>
        <rectangular-lane-cut value="false"/>
    </junctions>

    <pedestrian>
        <walkingareas value="false"/>
    </pedestrian>

</configuration>
-->

<net version="1.9" junctionCornerDetail="5" limitTurnSpeed="5.50" xmlns:xsi="http://www.w3.org/2001/XMLSchema-instance" xsi:noNamespaceSchemaLocation="http://sumo.dlr.de/xsd/net_file.xsd">

    <location netOffset="50.00,50.00" convBoundary="-77.36,-30.05,358.28,340.15" origBoundary="-50.00,-50.00,150.00,50.00" projParameter="!"/>

    <edge id=":J0_0" function="internal">
        <lane id=":J0_0_0" index="0" speed="6.81" length="9.66" shape="63.81,144.97 61.37,145.29 59.55,146.43 58.38,148.36 57.84,151.10"/>
    </edge>
    <edge id=":J0_1" function="internal">
        <lane id=":J0_1_0" index="0" speed="13.89" length="27.60" shape="63.81,144.97 36.20,144.10"/>
        <lane id=":J0_1_1" index="1" speed="13.89" length="27.60" shape="63.90,141.77 36.31,140.90"/>
        <lane id=":J0_1_2" index="2" speed="13.89" length="27.60" shape="63.98,138.57 36.43,137.70"/>
    </edge>
    <edge id=":J0_4" function="internal">
        <lane id=":J0_4_0" index="0" speed="10.75" length="4.86" shape="63.98,138.57 59.19,137.71"/>
    </edge>
    <edge id=":J0_20" function="internal">
        <lane id=":J0_20_0" index="0" speed="10.75" length="20.22" shape="59.19,137.71 57.52,137.41 52.82,134.31 49.86,129.29 48.66,122.33"/>
    </edge>
    <edge id=":J0_5" function="internal">
        <lane id=":J0_5_0" index="0" speed="7.09" length="10.36" shape="58.25,121.93 58.73,124.95 59.89,127.14 61.72,128.48 64.24,128.97"/>
    </edge>
    <edge id=":J0_6" function="internal">
        <lane id=":J0_6_0" index="0" speed="13.89" length="28.84" shape="58.25,121.93 58.59,130.59 58.66,136.52 58.42,142.45 57.84,151.10"/>
        <lane id=":J0_6_1" index="1" speed="13.89" length="28.84" shape="55.05,122.06 55.38,130.62 55.46,136.48 55.22,142.33 54.64,150.87"/>
        <lane id=":J0_6_2" index="2" speed="13.89" length="28.84" shape="51.86,122.19 52.18,130.64 52.25,136.43 52.03,142.21 51.45,150.64"/>
    </edge>
    <edge id=":J0_9" function="internal">
        <lane id=":J0_9_0" index="0" speed="10.26" length="5.06" shape="51.86,122.19 51.34,127.23"/>
    </edge>
    <edge id=":J0_21" function="internal">
        <lane id=":J0_21_0" index="0" speed="10.26" length="20.34" shape="51.34,127.23 51.14,129.20 48.33,134.11 43.43,136.95 36.43,137.70"/>
    </edge>
    <edge id=":J0_10" function="internal">
        <lane id=":J0_10_0" index="0" speed="6.35" length="9.04" shape="36.78,128.11 39.27,127.84 41.01,126.83 42.01,125.08 42.26,122.59"/>
    </edge>
    <edge id=":J0_11" function="internal">
        <lane id=":J0_11_0" index="0" speed="13.89" length="27.50" shape="36.78,128.11 64.24,128.97"/>
        <lane id=":J0_11_1" index="1" speed="13.89" length="27.50" shape="36.66,131.31 64.15,132.17"/>
        <lane id=":J0_11_2" index="2" speed="13.89" length="27.50" shape="36.55,134.50 64.07,135.37"/>
    </edge>
    <edge id=":J0_14" function="internal">
        <lane id=":J0_14_0" index="0" speed="10.38" length="4.97" shape="36.55,134.50 41.44,135.37"/>
    </edge>
    <edge id=":J0_22" function="internal">
        <lane id=":J0_22_0" index="0" speed="10.38" length="20.29" shape="41.44,135.37 43.48,135.73 48.28,138.83 50.94,143.80 51.45,150.64"/>
    </edge>
    <edge id=":J0_15" function="internal">
        <lane id=":J0_15_0" index="0" speed="6.54" length="9.38" shape="41.88,149.96 41.67,147.48 40.66,145.67 38.83,144.55 36.20,144.10"/>
    </edge>
    <edge id=":J0_16" function="internal">
        <lane id=":J0_16_0" index="0" speed="13.89" length="27.76" shape="41.88,149.96 42.43,141.85 42.65,136.28 42.58,130.72 42.26,122.59"/>
        <lane id=":J0_16_1" index="1" speed="13.89" length="27.76" shape="45.07,150.19 45.63,141.97 45.85,136.33 45.78,130.69 45.46,122.46"/>
        <lane id=":J0_16_2" index="2" speed="13.89" length="27.76" shape="48.26,150.42 48.83,142.09 49.05,136.38 48.98,130.67 48.66,122.33"/>
    </edge>
    <edge id=":J0_19" function="internal">
        <lane id=":J0_19_0" index="0" speed="10.56" length="5.17" shape="48.26,150.42 49.31,145.35"/>
    </edge>
    <edge id=":J0_23" function="internal">
        <lane id=":J0_23_0" index="0" speed="10.56" length="19.47" shape="49.31,145.35 49.66,143.69 52.76,138.94 57.56,136.16 64.07,135.37"/>
    </edge>
    <edge id=":J13_0" function="internal">
        <lane id=":J13_0_0" index="0" speed="6.46" length="9.09" shape="272.97,149.29 270.49,149.45 268.68,150.38 267.53,152.09 267.06,154.56"/>
    </edge>
    <edge id=":J13_1" function="internal">
        <lane id=":J13_1_0" index="0" speed="13.89" length="27.54" shape="272.97,149.29 245.69,148.08"/>
        <lane id=":J13_1_1" index="1" speed="13.89" length="27.54" shape="273.22,146.10 245.72,144.88"/>
        <lane id=":J13_1_2" index="2" speed="13.89" length="27.54" shape="273.48,142.91 245.75,141.68"/>
    </edge>
    <edge id=":J13_4" function="internal">
        <lane id=":J13_4_0" index="0" speed="10.49" length="4.15" shape="273.48,142.91 269.42,142.02"/>
    </edge>
    <edge id=":J13_20" function="internal">
        <lane id=":J13_20_0" index="0" speed="10.49" length="20.54" shape="269.42,142.02 266.78,141.44 262.12,138.26 259.50,133.36 258.90,126.76"/>
    </edge>
    <edge id=":J13_5" function="internal">
        <lane id=":J13_5_0" index="0" speed="6.70" length="9.46" shape="268.49,127.30 268.73,129.76 269.77,131.59 271.61,132.78 274.25,133.34"/>
    </edge>
    <edge id=":J13_6" function="internal">
        <lane id=":J13_6_0" index="0" speed="13.89" length="27.32" shape="268.49,127.30 267.06,154.56"/>
        <lane id=":J13_6_1" index="1" speed="13.89" length="27.32" shape="265.29,127.12 263.87,154.40"/>
        <lane id=":J13_6_2" index="2" speed="13.89" length="27.32" shape="262.10,126.94 260.67,154.25"/>
    </edge>
    <edge id=":J13_9" function="internal">
        <lane id=":J13_9_0" index="0" speed="10.62" length="4.72" shape="262.10,126.94 261.14,131.57"/>
    </edge>
    <edge id=":J13_21" function="internal">
        <lane id=":J13_21_0" index="0" speed="10.62" length="20.12" shape="261.14,131.57 260.76,133.44 257.59,138.07 252.58,140.82 245.75,141.68"/>
    </edge>
    <edge id=":J13_10" function="internal">
        <lane id=":J13_10_0" index="0" speed="6.90" length="9.90" shape="245.83,132.09 248.63,131.75 250.68,130.69 251.97,128.91 252.51,126.39"/>
    </edge>
    <edge id=":J13_11" function="internal">
        <lane id=":J13_11_0" index="0" speed="13.89" length="28.22" shape="245.83,132.09 274.25,133.34"/>
        <lane id=":J13_11_1" index="1" speed="13.89" length="28.22" shape="245.80,135.29 273.99,136.53"/>
        <lane id=":J13_11_2" index="2" speed="13.89" length="28.22" shape="245.77,138.49 273.73,139.72"/>
    </edge>
    <edge id=":J13_14" function="internal">
        <lane id=":J13_14_0" index="0" speed="10.31" length="6.57" shape="245.77,138.49 252.27,139.48"/>
    </edge>
    <edge id=":J13_22" function="internal">
        <lane id=":J13_22_0" index="0" speed="10.31" length="18.39" shape="252.27,139.48 252.57,139.52 257.32,142.50 260.02,147.41 260.67,154.25"/>
    </edge>
    <edge id=":J13_15" function="internal">
        <lane id=":J13_15_0" index="0" speed="6.42" length="9.04" shape="251.08,153.79 250.84,151.31 249.87,149.54 248.15,148.46 245.69,148.08"/>
    </edge>
    <edge id=":J13_16" function="internal">
        <lane id=":J13_16_0" index="0" speed="13.89" length="27.41" shape="251.08,153.79 252.51,126.39"/>
        <lane id=":J13_16_1" index="1" speed="13.89" length="27.41" shape="254.28,153.95 255.71,126.58"/>
        <lane id=":J13_16_2" index="2" speed="13.89" length="27.41" shape="257.47,154.10 258.90,126.76"/>
    </edge>
    <edge id=":J13_19" function="internal">
        <lane id=":J13_19_0" index="0" speed="10.33" length="5.17" shape="257.47,154.10 258.45,149.02"/>
    </edge>
    <edge id=":J13_23" function="internal">
        <lane id=":J13_23_0" index="0" speed="10.33" length="19.76" shape="258.45,149.02 258.77,147.34 261.91,142.70 266.90,140.16 273.73,139.72"/>
    </edge>
    <edge id=":J16_0" function="internal">
        <lane id=":J16_0_0" index="0" speed="7.76" length="12.14" shape="159.23,237.01 156.09,237.53 153.74,238.98 152.20,241.35 151.45,244.64"/>
    </edge>
    <edge id=":J16_1" function="internal">
        <lane id=":J16_1_0" index="0" speed="13.89" length="28.94" shape="159.23,237.01 130.28,237.47"/>
        <lane id=":J16_1_1" index="1" speed="13.89" length="28.94" shape="159.17,233.81 130.23,234.27"/>
        <lane id=":J16_1_2" index="2" speed="13.89" length="28.94" shape="159.11,230.61 130.19,231.07"/>
    </edge>
    <edge id=":J16_4" function="internal">
        <lane id=":J16_4_0" index="0" speed="10.27" length="5.04" shape="159.11,230.61 154.11,229.98"/>
    </edge>
    <edge id=":J16_20" function="internal">
        <lane id=":J16_20_0" index="0" speed="10.27" length="20.20" shape="154.11,229.98 152.19,229.74 147.35,226.84 144.59,221.92 143.91,214.97"/>
    </edge>
    <edge id=":J16_5" function="internal">
        <lane id=":J16_5_0" index="0" speed="6.37" length="9.04" shape="153.50,215.41 153.74,217.90 154.73,219.66 156.46,220.70 158.94,221.01"/>
    </edge>
    <edge id=":J16_6" function="internal">
        <lane id=":J16_6_0" index="0" speed="13.89" length="29.15" shape="153.50,215.41 151.45,244.64"/>
        <lane id=":J16_6_1" index="1" speed="13.89" length="29.15" shape="150.30,215.27 148.26,244.34"/>
        <lane id=":J16_6_2" index="2" speed="13.89" length="29.15" shape="147.11,215.12 145.08,244.04"/>
    </edge>
    <edge id=":J16_9" function="internal">
        <lane id=":J16_9_0" index="0" speed="10.94" length="5.88" shape="147.11,215.12 145.99,220.90"/>
    </edge>
    <edge id=":J16_21" function="internal">
        <lane id=":J16_21_0" index="0" speed="10.94" length="20.30" shape="145.99,220.90 145.78,222.01 142.52,226.97 137.32,229.99 130.19,231.07"/>
    </edge>
    <edge id=":J16_10" function="internal">
        <lane id=":J16_10_0" index="0" speed="7.38" length="11.36" shape="130.05,221.47 133.20,221.01 135.50,219.72 136.94,217.61 137.52,214.68"/>
    </edge>
    <edge id=":J16_11" function="internal">
        <lane id=":J16_11_0" index="0" speed="13.89" length="28.91" shape="130.05,221.47 158.94,221.01"/>
        <lane id=":J16_11_1" index="1" speed="13.89" length="28.91" shape="130.09,224.67 159.00,224.21"/>
        <lane id=":J16_11_2" index="2" speed="13.89" length="28.91" shape="130.14,227.87 159.06,227.41"/>
    </edge>
    <edge id=":J16_14" function="internal">
        <lane id=":J16_14_0" index="0" speed="10.22" length="4.91" shape="130.14,227.87 135.01,228.50"/>
    </edge>
    <edge id=":J16_22" function="internal">
        <lane id=":J16_22_0" index="0" speed="10.22" length="20.86" shape="135.01,228.50 137.25,228.80 142.11,231.80 144.72,236.88 145.08,244.04"/>
    </edge>
    <edge id=":J16_15" function="internal">
        <lane id=":J16_15_0" index="0" speed="6.29" length="9.04" shape="135.52,243.15 135.39,240.63 134.48,238.85 132.77,237.80 130.28,237.47"/>
    </edge>
    <edge id=":J16_16" function="internal">
        <lane id=":J16_16_0" index="0" speed="13.89" length="28.69" shape="135.52,243.15 137.52,214.68"/>
        <lane id=":J16_16_1" index="1" speed="13.89" length="28.69" shape="138.70,243.45 140.71,214.83"/>
        <lane id=":J16_16_2" index="2" speed="13.89" length="28.69" shape="141.89,243.74 143.91,214.97"/>
    </edge>
    <edge id=":J16_19" function="internal">
        <lane id=":J16_19_0" index="0" speed="11.21" length="4.50" shape="141.89,243.74 142.91,239.36"/>
    </edge>
    <edge id=":J16_23" function="internal">
        <lane id=":J16_23_0" index="0" speed="11.21" length="21.90" shape="142.91,239.36 143.53,236.70 146.93,231.63 152.11,228.54 159.06,227.41"/>
    </edge>
    <edge id=":J17_0" function="internal">
        <lane id=":J17_0_0" index="0" speed="6.56" length="9.31" shape="268.91,235.99 266.44,236.24 264.64,237.27 263.53,239.08 263.09,241.67"/>
    </edge>
    <edge id=":J17_1" function="internal">
        <lane id=":J17_1_0" index="0" speed="13.89" length="27.53" shape="268.91,235.99 241.60,235.54"/>
        <lane id=":J17_1_1" index="1" speed="13.89" length="27.53" shape="269.08,232.80 241.55,232.34"/>
        <lane id=":J17_1_2" index="2" speed="13.89" length="27.53" shape="269.24,229.60 241.49,229.14"/>
    </edge>
    <edge id=":J17_4" function="internal">
        <lane id=":J17_4_0" index="0" speed="10.40" length="4.09" shape="269.24,229.60 265.23,228.82"/>
    </edge>
    <edge id=":J17_20" function="internal">
        <lane id=":J17_20_0" index="0" speed="10.40" length="20.55" shape="265.23,228.82 262.57,228.31 257.91,225.22 255.26,220.34 254.62,213.67"/>
    </edge>
    <edge id=":J17_5" function="internal">
        <lane id=":J17_5_0" index="0" speed="6.57" length="9.20" shape="264.21,214.13 264.45,216.59 265.46,218.39 267.22,219.53 269.74,220.01"/>
    </edge>
    <edge id=":J17_6" function="internal">
        <lane id=":J17_6_0" index="0" speed="13.89" length="27.61" shape="264.21,214.13 263.09,241.67"/>
        <lane id=":J17_6_1" index="1" speed="13.89" length="27.61" shape="261.01,213.97 259.89,241.56"/>
        <lane id=":J17_6_2" index="2" speed="13.89" length="27.61" shape="257.82,213.82 256.69,241.45"/>
    </edge>
    <edge id=":J17_9" function="internal">
        <lane id=":J17_9_0" index="0" speed="10.76" length="4.68" shape="257.82,213.82 256.92,218.41"/>
    </edge>
    <edge id=":J17_21" function="internal">
        <lane id=":J17_21_0" index="0" speed="10.76" length="20.50" shape="256.92,218.41 256.53,220.42 253.38,225.17 248.36,228.08 241.49,229.14"/>
    </edge>
    <edge id=":J17_10" function="internal">
        <lane id=":J17_10_0" index="0" speed="7.11" length="10.42" shape="241.32,219.55 244.23,219.12 246.36,217.94 247.69,216.02 248.23,213.36"/>
    </edge>
    <edge id=":J17_11" function="internal">
        <lane id=":J17_11_0" index="0" speed="13.89" length="28.20" shape="241.32,219.55 269.74,220.01"/>
        <lane id=":J17_11_1" index="1" speed="13.89" length="28.20" shape="241.38,222.75 269.57,223.21"/>
        <lane id=":J17_11_2" index="2" speed="13.89" length="28.20" shape="241.43,225.94 269.41,226.41"/>
    </edge>
    <edge id=":J17_14" function="internal">
        <lane id=":J17_14_0" index="0" speed="10.29" length="6.50" shape="241.43,225.94 247.88,226.75"/>
    </edge>
    <edge id=":J17_22" function="internal">
        <lane id=":J17_22_0" index="0" speed="10.29" length="18.61" shape="247.88,226.75 248.31,226.81 253.14,229.68 255.94,234.56 256.69,241.45"/>
    </edge>
    <edge id=":J17_15" function="internal">
        <lane id=":J17_15_0" index="0" speed="6.40" length="9.04" shape="247.10,241.12 246.83,238.64 245.82,236.89 244.08,235.85 241.60,235.54"/>
    </edge>
    <edge id=":J17_16" function="internal">
        <lane id=":J17_16_0" index="0" speed="13.89" length="27.74" shape="247.10,241.12 248.23,213.36"/>
        <lane id=":J17_16_1" index="1" speed="13.89" length="27.74" shape="250.29,241.23 251.42,213.52"/>
        <lane id=":J17_16_2" index="2" speed="13.89" length="27.74" shape="253.49,241.34 254.62,213.67"/>
    </edge>
    <edge id=":J17_19" function="internal">
        <lane id=":J17_19_0" index="0" speed="10.39" length="5.36" shape="253.49,241.34 254.42,236.06"/>
    </edge>
    <edge id=":J17_23" function="internal">
        <lane id=":J17_23_0" index="0" speed="10.39" length="19.62" shape="254.42,236.06 254.69,234.51 257.74,229.74 262.64,227.04 269.41,226.41"/>
    </edge>
    <edge id=":J18_0" function="internal">
        <lane id=":J18_0_0" index="0" speed="7.27" length="11.04" shape="40.14,71.21 39.59,68.31 38.22,66.22 36.03,64.95 33.01,64.49"/>
    </edge>
    <edge id=":J18_1" function="internal">
        <lane id=":J18_1_0" index="0" speed="13.89" length="28.50" shape="40.14,71.21 38.57,42.85"/>
        <lane id=":J18_1_1" index="1" speed="13.89" length="28.50" shape="43.34,71.08 41.77,42.63"/>
        <lane id=":J18_1_2" index="2" speed="13.89" length="28.50" shape="46.54,70.95 44.96,42.41"/>
    </edge>
    <edge id=":J18_4" function="internal">
        <lane id=":J18_4_0" index="0" speed="10.28" length="4.55" shape="46.54,70.95 47.00,66.42"/>
    </edge>
    <edge id=":J18_20" function="internal">
        <lane id=":J18_20_0" index="0" speed="10.28" length="20.67" shape="47.00,66.42 47.24,64.02 50.02,59.11 54.87,56.23 61.79,55.37"/>
    </edge>
    <edge id=":J18_5" function="internal">
        <lane id=":J18_5_0" index="0" speed="6.38" length="9.04" shape="61.59,64.97 59.11,65.28 57.38,66.31 56.38,68.07 56.13,70.55"/>
    </edge>
    <edge id=":J18_6" function="internal">
        <lane id=":J18_6_0" index="0" speed="13.89" length="28.60" shape="61.59,64.97 33.01,64.49"/>
        <lane id=":J18_6_1" index="1" speed="13.89" length="28.60" shape="61.66,61.77 33.06,61.29"/>
        <lane id=":J18_6_2" index="2" speed="13.89" length="28.60" shape="61.72,58.57 33.10,58.09"/>
    </edge>
    <edge id=":J18_9" function="internal">
        <lane id=":J18_9_0" index="0" speed="11.04" length="4.92" shape="61.72,58.57 56.87,57.78"/>
    </edge>
    <edge id=":J18_21" function="internal">
        <lane id=":J18_21_0" index="0" speed="11.04" length="21.15" shape="56.87,57.78 54.80,57.45 49.70,54.38 46.42,49.36 44.96,42.41"/>
    </edge>
    <edge id=":J18_10" function="internal">
        <lane id=":J18_10_0" index="0" speed="7.52" length="11.56" shape="54.54,41.74 55.18,44.86 56.62,47.10 58.87,48.47 61.91,48.97"/>
    </edge>
    <edge id=":J18_11" function="internal">
        <lane id=":J18_11_0" index="0" speed="13.89" length="28.77" shape="54.54,41.74 56.13,70.55"/>
        <lane id=":J18_11_1" index="1" speed="13.89" length="28.77" shape="51.34,41.96 52.93,70.69"/>
        <lane id=":J18_11_2" index="2" speed="13.89" length="28.77" shape="48.15,42.19 49.73,70.82"/>
    </edge>
    <edge id=":J18_14" function="internal">
        <lane id=":J18_14_0" index="0" speed="10.25" length="5.49" shape="48.15,42.19 47.74,47.66"/>
    </edge>
    <edge id=":J18_22" function="internal">
        <lane id=":J18_22_0" index="0" speed="10.25" length="19.98" shape="47.74,47.66 47.63,49.23 44.95,54.23 40.10,57.18 33.10,58.09"/>
    </edge>
    <edge id=":J18_15" function="internal">
        <lane id=":J18_15_0" index="0" speed="6.33" length="9.04" shape="33.23,48.49 35.72,48.17 37.44,47.12 38.39,45.35 38.57,42.85"/>
    </edge>
    <edge id=":J18_16" function="internal">
        <lane id=":J18_16_0" index="0" speed="13.89" length="28.66" shape="33.23,48.49 61.91,48.97"/>
        <lane id=":J18_16_1" index="1" speed="13.89" length="28.66" shape="33.19,51.69 61.85,52.17"/>
        <lane id=":J18_16_2" index="2" speed="13.89" length="28.66" shape="33.14,54.89 61.79,55.37"/>
    </edge>
    <edge id=":J18_19" function="internal">
        <lane id=":J18_19_0" index="0" speed="10.87" length="5.24" shape="33.14,54.89 38.33,55.69"/>
    </edge>
    <edge id=":J18_23" function="internal">
        <lane id=":J18_23_0" index="0" speed="10.87" length="20.67" shape="38.33,55.69 40.16,55.97 45.26,58.98 48.45,63.93 49.73,70.82"/>
    </edge>
    <edge id=":J19_0" function="internal">
        <lane id=":J19_0_0" index="0" speed="6.54" length="9.15" shape="165.20,67.27 162.74,67.54 160.95,68.55 159.84,70.31 159.40,72.81"/>
    </edge>
    <edge id=":J19_1" function="internal">
        <lane id=":J19_1_0" index="0" speed="13.89" length="27.28" shape="165.20,67.27 137.99,66.49"/>
        <lane id=":J19_1_1" index="1" speed="13.89" length="27.28" shape="165.32,64.07 138.05,63.29"/>
        <lane id=":J19_1_2" index="2" speed="13.89" length="27.28" shape="165.44,60.87 138.11,60.10"/>
    </edge>
    <edge id=":J19_4" function="internal">
        <lane id=":J19_4_0" index="0" speed="10.46" length="4.74" shape="165.44,60.87 160.77,60.03"/>
    </edge>
    <edge id=":J19_20" function="internal">
        <lane id=":J19_20_0" index="0" speed="10.46" length="19.88" shape="160.77,60.03 158.82,59.68 154.13,56.65 151.37,51.80 150.53,45.12"/>
    </edge>
    <edge id=":J19_5" function="internal">
        <lane id=":J19_5_0" index="0" speed="6.66" length="9.36" shape="160.13,45.28 160.45,47.83 161.50,49.67 163.28,50.82 165.79,51.28"/>
    </edge>
    <edge id=":J19_6" function="internal">
        <lane id=":J19_6_0" index="0" speed="13.89" length="27.47" shape="160.13,45.28 159.40,72.81"/>
        <lane id=":J19_6_1" index="1" speed="13.89" length="27.47" shape="156.93,45.23 156.20,72.69"/>
        <lane id=":J19_6_2" index="2" speed="13.89" length="27.47" shape="153.73,45.17 153.00,72.58"/>
    </edge>
    <edge id=":J19_9" function="internal">
        <lane id=":J19_9_0" index="0" speed="10.38" length="5.31" shape="153.73,45.17 152.89,50.42"/>
    </edge>
    <edge id=":J19_21" function="internal">
        <lane id=":J19_21_0" index="0" speed="10.38" length="19.34" shape="152.89,50.42 152.66,51.82 149.70,56.52 144.85,59.28 138.11,60.10"/>
    </edge>
    <edge id=":J19_10" function="internal">
        <lane id=":J19_10_0" index="0" speed="6.54" length="9.14" shape="138.31,50.50 140.82,50.20 142.63,49.18 143.74,47.45 144.14,45.01"/>
    </edge>
    <edge id=":J19_11" function="internal">
        <lane id=":J19_11_0" index="0" speed="13.89" length="27.45" shape="138.31,50.50 165.79,51.28"/>
        <lane id=":J19_11_1" index="1" speed="13.89" length="27.45" shape="138.24,53.70 165.68,54.48"/>
        <lane id=":J19_11_2" index="2" speed="13.89" length="27.45" shape="138.18,56.90 165.56,57.67"/>
    </edge>
    <edge id=":J19_14" function="internal">
        <lane id=":J19_14_0" index="0" speed="10.34" length="5.31" shape="138.18,56.90 143.42,57.75"/>
    </edge>
    <edge id=":J19_22" function="internal">
        <lane id=":J19_22_0" index="0" speed="10.34" length="19.39" shape="143.42,57.75 144.87,57.99 149.57,60.97 152.28,65.83 153.00,72.58"/>
    </edge>
    <edge id=":J19_15" function="internal">
        <lane id=":J19_15_0" index="0" speed="6.47" length="9.03" shape="143.41,72.23 143.15,69.76 142.15,67.98 140.43,66.89 137.99,66.49"/>
    </edge>
    <edge id=":J19_16" function="internal">
        <lane id=":J19_16_0" index="0" speed="13.89" length="27.29" shape="143.41,72.23 144.14,45.01"/>
        <lane id=":J19_16_1" index="1" speed="13.89" length="27.29" shape="146.61,72.34 147.34,45.06"/>
        <lane id=":J19_16_2" index="2" speed="13.89" length="27.29" shape="149.80,72.46 150.53,45.12"/>
    </edge>
    <edge id=":J19_19" function="internal">
        <lane id=":J19_19_0" index="0" speed="10.39" length="4.75" shape="149.80,72.46 150.64,67.78"/>
    </edge>
    <edge id=":J19_23" function="internal">
        <lane id=":J19_23_0" index="0" speed="10.39" length="19.89" shape="150.64,67.78 151.00,65.78 154.02,61.09 158.87,58.39 165.56,57.67"/>
    </edge>
    <edge id=":J20_0" function="internal">
        <lane id=":J20_0_0" index="0" speed="6.73" length="9.64" shape="277.68,71.51 275.03,71.77 273.10,72.79 271.87,74.58 271.34,77.15"/>
    </edge>
    <edge id=":J20_1" function="internal">
        <lane id=":J20_1_0" index="0" speed="13.89" length="27.66" shape="277.68,71.51 250.06,70.40"/>
        <lane id=":J20_1_1" index="1" speed="13.89" length="27.66" shape="277.82,68.32 250.18,67.21"/>
        <lane id=":J20_1_2" index="2" speed="13.89" length="27.66" shape="277.96,65.12 250.30,64.01"/>
    </edge>
    <edge id=":J20_4" function="internal">
        <lane id=":J20_4_0" index="0" speed="10.32" length="4.89" shape="277.96,65.12 273.15,64.22"/>
    </edge>
    <edge id=":J20_20" function="internal">
        <lane id=":J20_20_0" index="0" speed="10.32" length="19.97" shape="273.15,64.22 271.23,63.86 266.59,60.74 264.04,55.77 263.57,48.94"/>
    </edge>
    <edge id=":J20_5" function="internal">
        <lane id=":J20_5_0" index="0" speed="6.44" length="9.03" shape="273.15,49.65 273.32,52.13 274.24,53.94 275.93,55.07 278.37,55.53"/>
    </edge>
    <edge id=":J20_6" function="internal">
        <lane id=":J20_6_0" index="0" speed="13.89" length="27.61" shape="273.15,49.65 271.34,77.15"/>
        <lane id=":J20_6_1" index="1" speed="13.89" length="27.61" shape="269.96,49.41 268.15,76.96"/>
        <lane id=":J20_6_2" index="2" speed="13.89" length="27.61" shape="266.76,49.18 264.95,76.78"/>
    </edge>
    <edge id=":J20_9" function="internal">
        <lane id=":J20_9_0" index="0" speed="10.62" length="4.79" shape="266.76,49.18 265.75,53.86"/>
    </edge>
    <edge id=":J20_21" function="internal">
        <lane id=":J20_21_0" index="0" speed="10.62" length="20.28" shape="265.75,53.86 265.31,55.88 262.08,60.58 257.07,63.29 250.30,64.01"/>
    </edge>
    <edge id=":J20_10" function="internal">
        <lane id=":J20_10_0" index="0" speed="6.90" length="10.00" shape="250.65,54.42 253.34,54.13 255.33,53.04 256.61,51.15 257.19,48.47"/>
    </edge>
    <edge id=":J20_11" function="internal">
        <lane id=":J20_11_0" index="0" speed="13.89" length="27.72" shape="250.65,54.42 278.37,55.53"/>
        <lane id=":J20_11_1" index="1" speed="13.89" length="27.72" shape="250.53,57.61 278.24,58.72"/>
        <lane id=":J20_11_2" index="2" speed="13.89" length="27.72" shape="250.42,60.81 278.10,61.92"/>
    </edge>
    <edge id=":J20_14" function="internal">
        <lane id=":J20_14_0" index="0" speed="10.33" length="5.11" shape="250.42,60.81 255.44,61.72"/>
    </edge>
    <edge id=":J20_22" function="internal">
        <lane id=":J20_22_0" index="0" speed="10.33" length="19.63" shape="255.44,61.72 257.10,62.02 261.76,65.09 264.37,70.01 264.95,76.78"/>
    </edge>
    <edge id=":J20_15" function="internal">
        <lane id=":J20_15_0" index="0" speed="6.46" length="9.03" shape="255.37,76.24 255.16,73.76 254.20,71.97 252.50,70.85 250.06,70.40"/>
    </edge>
    <edge id=":J20_16" function="internal">
        <lane id=":J20_16_0" index="0" speed="13.89" length="27.78" shape="255.37,76.24 257.19,48.47"/>
        <lane id=":J20_16_1" index="1" speed="13.89" length="27.78" shape="258.56,76.42 260.38,48.70"/>
        <lane id=":J20_16_2" index="2" speed="13.89" length="27.78" shape="261.76,76.60 263.57,48.94"/>
    </edge>
    <edge id=":J20_19" function="internal">
        <lane id=":J20_19_0" index="0" speed="10.51" length="5.30" shape="261.76,76.60 262.81,71.40"/>
    </edge>
    <edge id=":J20_23" function="internal">
        <lane id=":J20_23_0" index="0" speed="10.51" length="19.67" shape="262.81,71.40 263.11,69.93 266.28,65.26 271.28,62.59 278.10,61.92"/>
    </edge>
    <edge id=":J35_0" function="internal">
        <lane id=":J35_0_0" index="0" speed="7.74" length="12.20" shape="58.70,238.49 55.49,239.00 53.11,240.43 51.55,242.79 50.81,246.06"/>
    </edge>
    <edge id=":J35_1" function="internal">
        <lane id=":J35_1_0" index="0" speed="13.89" length="29.14" shape="58.70,238.49 29.59,239.04"/>
        <lane id=":J35_1_1" index="1" speed="13.89" length="29.14" shape="58.65,235.29 29.52,235.84"/>
        <lane id=":J35_1_2" index="2" speed="13.89" length="29.14" shape="58.60,232.09 29.44,232.64"/>
    </edge>
    <edge id=":J35_4" function="internal">
        <lane id=":J35_4_0" index="0" speed="10.25" length="4.82" shape="58.60,232.09 53.82,231.47"/>
    </edge>
    <edge id=":J35_20" function="internal">
        <lane id=":J35_20_0" index="0" speed="10.25" length="20.68" shape="53.82,231.47 51.59,231.18 46.74,228.22 44.07,223.21 43.56,216.16"/>
    </edge>
    <edge id=":J35_5" function="internal">
        <lane id=":J35_5_0" index="0" speed="6.33" length="9.04" shape="53.13,216.84 53.31,219.34 54.26,221.12 55.98,222.17 58.47,222.49"/>
    </edge>
    <edge id=":J35_6" function="internal">
        <lane id=":J35_6_0" index="0" speed="13.89" length="29.26" shape="53.13,216.84 50.81,246.06"/>
        <lane id=":J35_6_1" index="1" speed="13.89" length="29.26" shape="49.94,216.61 47.62,245.78"/>
        <lane id=":J35_6_2" index="2" speed="13.89" length="29.26" shape="46.75,216.39 44.44,245.50"/>
    </edge>
    <edge id=":J35_9" function="internal">
        <lane id=":J35_9_0" index="0" speed="11.16" length="5.31" shape="46.75,216.39 45.63,221.58"/>
    </edge>
    <edge id=":J35_21" function="internal">
        <lane id=":J35_21_0" index="0" speed="11.16" length="21.24" shape="45.63,221.58 45.24,223.35 41.86,228.39 36.59,231.48 29.44,232.64"/>
    </edge>
    <edge id=":J35_10" function="internal">
        <lane id=":J35_10_0" index="0" speed="7.70" length="12.10" shape="29.22,223.04 32.51,222.52 34.93,221.12 36.49,218.85 37.18,215.70"/>
    </edge>