<?xml version="1.0" encoding="UTF-8"?>
<routes>
  <vType accel="0.8" decel="4.5" length="5.0" minGap="2.5" maxSpeed="50.0" sigma="0.5" vClass="private" id="private_car" />
  <vType accel="2.0" decel="6.0" length="7.5" minGap="2.5" maxSpeed="50.0" sigma="0.5" vClass="bus" id="danfo" />
  <vType accel="3.0" decel="6.0" length="5.0" minGap="2.5" maxSpeed="50.0" sigma="0.5" vClass="truck" id="truck" />
  <vType accel="2.0" decel="6.0" length="7.5" minGap="2.5" maxSpeed="50.0" sigma="0.5" vClass="emergency" id="emergency" color="1,0,0" />

  <!--  ALL ROUTES ON LANE 1 -->
  <route id="route01" edges="E11 -E0 -E2 -E9"/>
  <route id="route02" edges="E11 -E12"/>
  <route id="route03" edges="E11 -E10"/>
  <route id="route04" edges="E12 -E10"/>
  <route id="route05" edges="E12 -E11"/>
  <route id="route06" edges="E10 -E12"/>
  <route id="route07" edges="E10 -E0"/>
  <route id="route08" edges="E10 -E11"/>
  <route id="route09" edges="-E0 -E6"/>
  <route id="route10" edges="-E0 -E4"/>
  <route id="route11" edges="E4 -E6"/>
  <route id="route12" edges="E4 E0"/>
  <route id="route13" edges="E4 -E2"/>
  <route id="route14" edges="E6 -E4"/>
  <route id="route15" edges="E6 -E2"/>
  <route id="route16" edges="E6 E0"/>
  <route id="route17" edges="E0 -E10"/>
  <route id="route18" edges="E0 -E12"/>
  <route id="route19" edges="E2 -E4"/>
  <route id="route20" edges="E2 -E6"/>
  <route id="route21" edges="-E2 -E8"/>
  <route id="route22" edges="-E2 -E7"/>
  <route id="route23" edges="E9 E2 E0 -E11"/>
  <route id="route24" edges="E7 -E8"/>
  <route id="route25" edges="E7 E2"/>
  <route id="route26" edges="E7 -E9"/>
  <route id="route27" edges="E8 -E7"/>
  <route id="route28" edges="E8 -E9"/>
  <route id="route29" edges="E8 E2"/>
  <route id="route30" edges="-E0 -E2 -E9"/>
  <route id="route31" edges="E2 E0 -E11"/>
  
  
    <!-- ALL VEHICLES ON ROUTE1 -->
 <flow id="car-route1" number="800" begin="0" probability="0.4" type="private_car">
    <route edges="E11 -E0 -E2 -E9" />
  </flow>
  <flow id="bus-route1" number="100" begin="0" probability="0.2" type="danfo">
      <route edges="E11 -E0 -E2 -E9" />
  </flow>
  <flow id="truck-route1" number="50" begin="0" probability="0.01" type="truck">
      <route edges="E11 -E0 -E2 -E9"/>
  </flow>
  <flow id="emergency-route1" number="2" begin="0" probability="0.01" type="emergency">
      <route edges="E11 -E0 -E2 -E9"/>
  </flow>
  
  <!-- ALL VEHICLES ON ROUTE2 -->
 <flow id="car-route2" number="800" begin="0" probability="0.4" type="private_car">
    <route edges="E11 -E12"/>
  </flow>
  <flow id="bus-route2" number="100" begin="0" probability="0.2" type="danfo">
      <route edges="E11 -E12" />
  </flow>
  <flow id="truck-route2" number="50" begin="0" probability="0.01" type="truck">
      <route edges="E11 -E12"/>
  </flow>
  <flow id="emergency-route2" number="2" begin="0" probability="0.01" type="emergency">
      <route edges="E11 -E12"/>
  </flow>

  <!-- ALL VEHICLES ON ROUTE3 -->
 <flow id="car-route3" number="800" begin="0" probability="0.4" type="private_car">
    <route edges="E11 -E10"/>
  </flow>
  <flow id="bus-route3" number="100" begin="0" probability="0.2" type="danfo">
      <route edges="E11 -E10" />
  </flow>
  <flow id="truck-route3" number="50" begin="0" probability="0.01" type="truck">
      <route edges="E11 -E10"/>
  </flow>
  <flow id="emergency-route3" number="2" begin="0" probability="0.01" type="emergency">
      <route edges="E11 -E10"/>
  </flow>
  
  <!-- ALL VEHICLES ON ROUTE4 -->
 <flow id="car-route4" number="800" begin="0" probability="0.4" type="private_car">
    <route edges="E12 -E10"/>
  </flow>
  <flow id="bus-route4" number="100" begin="0" probability="0.2" type="danfo">
      <route edges="E12 -E10" />
  </flow>
 <flow id="truck-route4" number="50" begin="0" probability="0.01" type="truck">
      <route edges="E12 -E10"/>
  </flow>
 <flow id="emergency-route4" number="2" begin="0" probability="0.01" type="emergency">
      <route edges="E12 -E10"/>
  </flow>
  
  <!-- ALL VEHICLES ON ROUTE5 -->
 <flow id="car-route5" number="800" begin="0" probability="0.4" type="private_car">
    <route edges="E12 -E11"/>
  </flow>
  <flow id="bus-route5" number="100" begin="0" probability="0.2" type="danfo">
      <route edges="E12 -E11" />
  </flow>
  <flow id="truck-route5" number="50" begin="0" probability="0.01" type="truck">
      <route edges="E12 -E11"/>
  </flow>
  <flow id="emergency-route5" number="2" begin="0" probability="0.01" type="emergency">
      <route edges="E12 -E11"/>
  </flow>
  
  <!-- ALL VEHICLES ON ROUTE6 -->
 <flow id="car-route6" number="800" begin="0" probability="0.4" type="private_car">
    <route edges="E10 -E12"/>
  </flow>
  <flow id="bus-route6" number="100" begin="0" probability="0.2" type="danfo">
      <route edges="E10 -E12" />
  </flow>
  <flow id="truck-route6" number="50" begin="0" probability="0.02" type="truck">
      <route edges="E10 -E12"/>
  </flow>
  <flow id="emergency-route6" number="2" begin="0" probability="0.01" type="emergency">
      <route edges="E10 -E12"/>
  </flow>
  
  <!-- ALL VEHICLES ON ROUTE7-->
 <flow id="car-route7" number="800" begin="0" probability="0.4" type="private_car">
    <route edges="E10 -E0"/>
  </flow>
  <flow id="bus-route7" number="100" begin="0" probability="0.2" type="danfo">
      <route edges="E10 -E0" />
  </flow>
  <flow id="truck-route7" number="50" begin="0" probability="0.01" type="truck">
      <route edges="E10 -E0"/>
  </flow>
  <flow id="emergency-route7" number="2" begin="0" probability="0.01" type="emergency">
      <route edges="E10 -E0"/>
  </flow>
  
  <!-- ALL VEHICLES ON ROUTE8-->
 <flow id="car-route8" number="800" begin="0" probability="0.4" type="private_car">
    <route edges="E10 -E11"/>
  </flow>
  <flow id="bus-route8" number="100" begin="0" probability="0.2" type="danfo">
      <route edges="E10 -E11" />
  </flow>
  <flow id="truck-route8" number="50" begin="0" probability="0.01" type="truck">
      <route edges="E10 -E11"/>
  </flow>
  <flow id="emergency-route8" number="2" begin="0" probability="0.01" type="emergency">
      <route edges="E10 -E11"/>
  </flow>
  
   <!-- ALL VEHICLES ON ROUTE9-->
 <flow id="car-route9" number="800" begin="0" probability="0.4" type="private_car">
    <route edges="-E0 -E6"/>
  </flow>
  <flow id="bus-route9" number="100" begin="0" probability="0.2" type="danfo">
      <route edges="-E0 -E6" />
  </flow>
  <flow id="truck-route9" number="50" begin="0" probability="0.01" type="truck">
      <route edges="-E0 -E6"/>
  </flow>
  <flow id="emergency-route9" number="2" begin="0" probability="0.01" type="emergency">
      <route edges="-E0 -E6"/>
  </flow>
  
  <!-- ALL VEHICLES ON route10-->
 <flow id="car-route10" number="800" begin="0" probability="0.4" type="private_car">
    <route edges="-E0 -E4"/>
  </flow>
  <flow id="bus-route10" number="100" begin="0" probability="0.2" type="danfo">
      <route edges="-E0 -E4" />
  </flow>
  <flow id="truck-route10" number="50" begin="0" probability="0.01" type="truck">
      <route edges="-E0 -E4"/>
  </flow>
  <flow id="emergency-route10" number="2" begin="0" probability="0.01" type="emergency">
      <route edges="-E0 -E4"/>
  </flow>
  
   <!-- ALL VEHICLES ON route11-->
 <flow id="car-route11" number="800" begin="0" probability="0.4" type="private_car">
    <route edges="E4 -E6"/>
  </flow>
  <flow id="bus-route11" number="100" begin="0" probability="0.2" type="danfo">
      <route edges="E4 -E6" />
  </flow>
  <flow id="truck-route11" number="50" begin="0" probability="0.01" type="truck">
      <route edges="E4 -E6"/>
  </flow>
  <flow id="emergency-route11" number="2" begin="0" probability="0.01" type="emergency">
      <route edges="E4 -E6"/>
  </flow>
  
  <!-- ALL VEHICLES ON route12-->
 <flow id="car-route12" number="800" begin="0" probability="0.4" type="private_car">
    <route edges="E4 E0"/>
  </flow>
  <flow id="bus-route12" number="100" begin="0" probability="0.2" type="danfo">
      <route edges="E4 E0" />
  </flow>
  <flow id="truck-route12" number="50" begin="0" probability="0.01" type="truck">
      <route edges="E4 E0"/>
  </flow>
  <flow id="emergency-route12" number="2" begin="0" probability="0.01" type="emergency">
      <route edges="E4 E0"/>
  </flow>
  
  <!-- ALL VEHICLES ON route13-->
 <flow id="car-route13" number="800" begin="0" probability="0.4" type="private_car">
    <route edges="E4 -E2"/>
  </flow>
  <flow id="bus-route13" number="100" begin="0" probability="0.2" type="danfo">
      <route edges="E4 -E2" />
  </flow>
  <flow id="truck-route13" number="50" begin="0" probability="0.01" type="truck">
      <route edges="E4 -E2"/>
  </flow>
  <flow id="emergency-route13" number="2" begin="0" probability="0.01" type="emergency">
      <route edges="E4 -E2"/>
  </flow>
  
   <!-- ALL VEHICLES ON route14-->
 <flow id="car-route14" number="800" begin="0" probability="0.4" type="private_car">
    <route edges="E6 -E4"/>
  </flow>
  <flow id="bus-route14" number="100" begin="0" probability="0.2" type="danfo">
      <route edges="E6 -E4" />
  </flow>
  <flow id="truck-route14" number="50" begin="0" probability="0.01" type="truck">
      <route edges="E6 -E4"/>
  </flow>
  <flow id="emergency-route14" number="2" begin="0" probability="0.01" type="emergency">
      <route edges="E6 -E4"/>
  </flow>
  
   <!-- ALL VEHICLES ON route15-->
 <flow id="car-route15" number="800" begin="0" probability="0.4" type="private_car">
    <route edges="E6 -E2"/>
  </flow>
  <flow id="bus-route15" number="100" begin="0" probability="0.2" type="danfo">
      <route edges="E6 -E2" />
  </flow>
  <flow id="truck-route15" number="50" begin="0" probability="0.01" type="truck">
      <route edges="E6 -E2"/>
  </flow>
  <flow id="emergency-route15" number="2" begin="0" probability="0.01" type="emergency">
      <route edges="E6 -E2"/>
  </flow>
  
  <!-- ALL VEHICLES ON route16-->
 <flow id="car-route16" number="800" begin="0" probability="0.4" type="private_car">
    <route edges="E6 E0"/>
  </flow>
  <flow id="bus-route16" number="100" begin="0" probability="0.2" type="danfo">
      <route edges="E6 E0" />
  </flow>
  <flow id="truck-route16" number="50" begin="0" probability="0.01" type="truck">
      <route edges="E6 E0"/>
  </flow>
  <flow id="emergency-route16" number="2" begin="0" probability="0.01" type="emergency">
      <route edges="E6 E0"/>
  </flow>
  
   <!-- ALL VEHICLES ON route17-->
 <flow id="car-route17" number="800" begin="0" probability="0.4" type="private_car">
    <route edges="E0 -E10"/>
  </flow>
  <flow id="bus-route17" number="100" begin="0" probability="0.2" type="danfo">
      <route edges="E0 -E10" />
  </flow>
  <flow id="truck-route17" number="50" begin="0" probability="0.01" type="truck">
      <route edges="E0 -E10"/>
  </flow>
  <flow id="emergency-route17" number="2" begin="0" probability="0.01" type="emergency">
      <route edges="E0 -E10"/>
  </flow>
  
   <!-- ALL VEHICLES ON route18-->
 <flow id="car-route18" number="800" begin="0" probability="0.4" type="private_car">
    <route edges="E0 -E12"/>
  </flow>
  <flow id="bus-route18" number="100" begin="0" probability="0.2" type="danfo">
      <route edges="E0 -E12" />
  </flow>
  <flow id="truck-route18" number="50" begin="0" probability="0.01" type="truck">
      <route edges="E0 -E12"/>
  </flow>
  <flow id="emergency-route18" number="2" begin="0" probability="0.01" type="emergency">
      <route edges="E0 -E12"/>
  </flow>
  
  <!-- ALL VEHICLES ON route19-->
 <flow id="car-route19" number="800" begin="0" probability="0.4" type="private_car">
    <route edges="E0 -E12"/>
  </flow>
  <flow id="bus-route19" number="100" begin="0" probability="0.2" type="danfo">
      <route edges="E0 -E12" />
  </flow>
  <flow id="truck-route19" number="50" begin="0" probability="0.01" type="truck">
      <route edges="E0 -E12"/>
  </flow>
  <flow id="emergency-route19" number="2" begin="0" probability="0.01" type="emergency">
      <route edges="E0 -E12"/>
  </flow>
  
  <!-- ALL VEHICLES ON route20-->
 <flow id="car-route20" number="800" begin="0" probability="0.4" type="private_car">
    <route edges="E2 -E6"/>
  </flow>
  <flow id="bus-route20" number="100" begin="0" probability="0.2" type="danfo">
      <route edges="E2 -E6" />
  </flow>
  <flow id="truck-route20" number="50" begin="0" probability="0.01" type="truck">
      <route edges="E2 -E6"/>
  </flow>
  <flow id="emergency-route20" number="2" begin="0" probability="0.01" type="emergency">
      <route edges="E2 -E6"/>
  </flow>
  
  <!-- ALL VEHICLES ON route21-->
 <flow id="car-route21" number="800" begin="0" probability="0.4" type="private_car">
    <route edges="-E2 -E8"/>
  </flow>
  <flow id="bus-route21" number="100" begin="0" probability="0.2" type="danfo">
      <route edges="-E2 -E8" />
  </flow>
  <flow id="truck-route21" number="50" begin="0" probability="0.01" type="truck">
      <route edges="-E2 -E8"/>
  </flow>
  <flow id="emergency-route21" number="2" begin="0" probability="0.01" type="emergency">
      <route edges="-E2 -E8"/>
  </flow>
  
   <!-- ALL VEHICLES ON route22-->
 <flow id="car-route22" number="800" begin="0" probability="0.4" type="private_car">
    <route edges="-E2 -E7"/>
  </flow>
  <flow id="bus-route22" number="100" begin="0" probability="0.2" type="danfo">
      <route edges="-E2 -E7" />
  </flow>
  <flow id="truck-route22" number="50" begin="0" probability="0.01" type="truck">
      <route edges="-E2 -E7"/>
  </flow>
  <flow id="emergency-route22" number="2" begin="0" probability="0.01" type="emergency">
      <route edges="-E2 -E7"/>
  </flow>
   <!-- ALL VEHICLES ON route23-->
 <flow id="car-route23" number="800" begin="0" probability="0.4" type="private_car">
    <route edges="E9 E2 E0 -E11"/>
  </flow>
  <flow id="bus-route23" number="100" begin="0" probability="0.2" type="danfo">
      <route edges="E9 E2 E0 -E11" />
  </flow>
  <flow id="truck-route23" number="50" begin="0" probability="0.01" type="truck">
      <route edges="E9 E2 E0 -E11"/>
  </flow>
  <flow id="emergency-route23" number="2" begin="0" probability="0.01" type="emergency">
      <route edges="E9 E2 E0 -E11"/>
  </flow>
   <!-- ALL VEHICLES ON route24-->
 <flow id="car-route24" number="800" begin="0" probability="0.4" type="private_car">
    <route edges="E7 -E8"/>
  </flow>
  <flow id="bus-route24" number="100" begin="0" probability="0.2" type="danfo">
      <route edges="E7 -E8" />
  </flow>
  <flow id="truck-route24" number="50" begin="0" probability="0.01" type="truck">
      <route edges="E7 -E8"/>
  </flow>
  <flow id="emergency-route24" number="2" begin="0" probability="0.01" type="emergency">
      <route edges="E7 -E8"/>
  </flow>
  
  <!-- ALL VEHICLES ON route25-->
 <flow id="car-route25" number="800" begin="0" probability="0.4" type="private_car">
    <route edges="E7 E2"/>
  </flow>
  <flow id="bus-route25" number="100" begin="0" probability="0.2" type="danfo">
      <route edges="E7 E2" />
  </flow>
  <flow id="truck-route25" number="50" begin="0" probability="0.01" type="truck">
      <route edges="E7 E2"/>
  </flow>
  <flow id="emergency-route25" number="2" begin="0" probability="0.01" type="emergency">
      <route edges="E7 E2"/>
  </flow>
  
  <!-- ALL VEHICLES ON route26-->
 <flow id="car-route26" number="800" begin="0" probability="0.4" type="private_car">
    <route edges="E7 -E9"/>
  </flow>
  <flow id="bus-route26" number="100" begin="0" probability="0.2" type="danfo">
      <route edges="E7 -E9" />
  </flow>
  <flow id="truck-route26" number="50" begin="0" probability="0.01" type="truck">
      <route edges="E7 -E9"/>
  </flow>
  <flow id="emergency-route26" number="2" begin="0" probability="0.01" type="emergency">
      <route edges="E7 -E9"/>
  </flow>
  
   <!-- ALL VEHICLES ON route27-->
 <flow id="car-route27" number="800" begin="0" probability="0.4" type="private_car">
    <route edges="E8 -E7"/>
  </flow>
  <flow id="bus-route27" number="100" begin="0" probability="0.2" type="danfo">
      <route edges="E8 -E7" />
  </flow>
  <flow id="truck-route27" number="50" begin="0" probability="0.01" type="truck">
      <route edges="E8 -E7"/>
  </flow>
  <flow id="emergency-route27" number="2" begin="0" probability="0.01" type="emergency">
      <route edges="E8 -E7"/>
  </flow>
  
  <!-- ALL VEHICLES ON route28-->
 <flow id="car-route28" number="800" begin="0" probability="0.4" type="private_car">
    <route edges="E8 -E9"/>
  </flow>
  <flow id="bus-route28" number="100" begin="0" probability="0.2" type="danfo">
      <route edges="E8 -E9" />
  </flow>
  <flow id="truck-route28" number="50" begin="0" probability="0.01" type="truck">
      <route edges="E8 -E9"/>
  </flow>
  <flow id="emergency-route28" number="2" begin="0" probability="0.01" type="emergency">
      <route edges="E8 -E9"/>
  </flow>
  <!-- ALL VEHICLES ON route29-->
 <flow id="car-route29" number="800" begin="0" probability="0.4" type="private_car">
    <route edges="E8 E2"/>
  </flow>
  <flow id="bus-route29" number="100" begin="0" probability="0.2" type="danfo">
      <route edges="E8 E2" />
  </flow>
  <flow id="truck-route29" number="50" begin="0" probability="0.01" type="truck">
      <route edges="E8 E2"/>
  </flow>
  <flow id="emergency-route29" number="2" begin="0" probability="0.01" type="emergency">
      <route edges="E8 E2"/>
  </flow>
  
  <!-- ALL VEHICLES ON route30-->
 <flow id="car-route30" number="800" begin="0" probability="0.4" type="private_car">
    <route edges="-E0 -E2 -E9"/>
  </flow>
  <flow id="bus-route30" number="100" begin="0" probability="0.2" type="danfo">
      <route edges="-E0 -E2 -E9" />
  </flow>
  <flow id="truck-route30" number="50" begin="0" probability="0.01" type="truck">
      <route edges="-E0 -E2 -E9"/>
  </flow>
  <flow id="emergency-route30" number="2" begin="0" probability="0.01" type="emergency">
      <route edges="-E0 -E2 -E9"/>
  </flow>
  
   <!-- ALL VEHICLES ON route31-->
 <flow id="car-route31" number="800" begin="0" probability="0.4" type="private_car">
    <route edges="E2 E0 -E11"/>
  </flow>
  <flow id="bus-route31" number="100" begin="0" probability="0.2" type="danfo">
      <route edges="E2 E0 -E11" />
  </flow>
  <flow id="truck-route31" number="50" begin="0" probability="0.01" type="truck">
      <route edges="E2 E0 -E11"/>
  </flow>
  <flow id="emergency-route31" number="2" begin="0" probability="0.01" type="emergency">
      <route edges="E2 E0 -E11"/>
  </flow>
</routes>
