<?xml version="1.0" encoding="UTF-8"?>

<configuration xmlns:xsi="http://www.w3.org/2001/XMLSchema-instance" xsi:noNamespaceSchemaLocation="http://sumo.dlr.de/xsd/sumoConfiguration.xsd">

    <input>
        <net-file value="ThreeInter.net.xml"/>
        <route-files value="ThreeInterNS.rou.xml"/>
		<additional-files value="ThreeInter.add.xml"/>
    </input>

    <time>
        <begin value="54000"/>
        <end value=" 69000"/>
    </time>
    <time-to-teleport value="-1"/>

    <report>
        <verbose value="true"/>
        <no-step-log value="true"/>
    </report>

</configuration>