<?xml version="1.0" encoding="UTF-8"?>

<!-- generated on 2024-07-02 17:56:16 by Eclipse SUMO netedit Version 1.14.1
<configuration xmlns:xsi="http://www.w3.org/2001/XMLSchema-instance" xsi:noNamespaceSchemaLocation="http://sumo.dlr.de/xsd/netconvertConfiguration.xsd">

    <input>
        <sumo-net-file value="C:\Users\Tame\Desktop\Interpolative\Two\data2\TwoInter.net.xml"/>
    </input>

    <output>
        <output-file value="C:\Users\Tame\Desktop\Interpolative\Two\data2\TwoInter.net.xml"/>
    </output>

    <processing>
        <geometry.min-radius.fix.railways value="false"/>
        <geometry.max-grade.fix value="false"/>
        <offset.disable-normalization value="true"/>
        <lefthand value="false"/>
    </processing>

    <junctions>
        <no-turnarounds value="true"/>
        <junctions.corner-detail value="5"/>
        <junctions.limit-turn-speed value="5.5"/>
        <rectangular-lane-cut value="false"/>
    </junctions>

    <pedestrian>
        <walkingareas value="false"/>
    </pedestrian>

</configuration>
-->

<net version="1.9" junctionCornerDetail="5" limitTurnSpeed="5.50" xmlns:xsi="http://www.w3.org/2001/XMLSchema-instance" xsi:noNamespaceSchemaLocation="http://sumo.dlr.de/xsd/net_file.xsd">

    <location netOffset="50.00,50.00" convBoundary="-75.95,-9.07,213.54,115.55" origBoundary="-50.00,-50.00,150.00,50.00" projParameter="!"/>

    <edge id=":J0_0" function="internal">
        <lane id=":J0_0_0" index="0" speed="6.76" length="9.73" shape="15.54,59.45 12.97,59.82 11.11,60.96 9.98,62.88 9.56,65.57"/>
    </edge>
    <edge id=":J0_1" function="internal">
        <lane id=":J0_1_0" index="0" speed="13.89" length="27.65" shape="15.54,59.45 -12.00,59.76"/>
        <lane id=":J0_1_1" index="1" speed="13.89" length="27.65" shape="15.56,56.25 -12.09,56.56"/>
        <lane id=":J0_1_2" index="2" speed="13.89" length="27.65" shape="15.57,53.05 -12.17,53.36"/>
    </edge>
    <edge id=":J0_4" function="internal">
        <lane id=":J0_4_0" index="0" speed="10.34" length="4.52" shape="15.57,53.05 11.10,52.39"/>
    </edge>
    <edge id=":J0_20" function="internal">
        <lane id=":J0_20_0" index="0" speed="10.34" length="20.18" shape="11.10,52.39 8.86,52.06 4.11,49.15 1.33,44.33 0.50,37.60"/>
    </edge>
    <edge id=":J0_5" function="internal">
        <lane id=":J0_5_0" index="0" speed="6.47" length="9.03" shape="10.10,37.80 10.40,40.26 11.42,42.02 13.16,43.08 15.61,43.45"/>
    </edge>
    <edge id=":J0_6" function="internal">
        <lane id=":J0_6_0" index="0" speed="13.89" length="27.79" shape="10.10,37.80 9.56,65.57"/>
        <lane id=":J0_6_1" index="1" speed="13.89" length="27.79" shape="6.90,37.73 6.36,65.51"/>
        <lane id=":J0_6_2" index="2" speed="13.89" length="27.79" shape="3.70,37.67 3.16,65.45"/>
    </edge>
    <edge id=":J0_9" function="internal">
        <lane id=":J0_9_0" index="0" speed="10.69" length="4.93" shape="3.70,37.67 2.90,42.53"/>
    </edge>
    <edge id=":J0_21" function="internal">
        <lane id=":J0_21_0" index="0" speed="10.69" length="20.27" shape="2.90,42.53 2.59,44.38 -0.42,49.23 -5.35,52.22 -12.17,53.36"/>
    </edge>
    <edge id=":J0_10" function="internal">
        <lane id=":J0_10_0" index="0" speed="7.00" length="10.24" shape="-12.43,43.76 -9.62,43.30 -7.59,42.10 -6.35,40.16 -5.90,37.47"/>
    </edge>
    <edge id=":J0_11" function="internal">
        <lane id=":J0_11_0" index="0" speed="13.89" length="27.94" shape="-12.43,43.76 15.61,43.45"/>
        <lane id=":J0_11_1" index="1" speed="13.89" length="27.94" shape="-12.34,46.96 15.60,46.65"/>
        <lane id=":J0_11_2" index="2" speed="13.89" length="27.94" shape="-12.26,50.16 15.58,49.85"/>
    </edge>
    <edge id=":J0_14" function="internal">
        <lane id=":J0_14_0" index="0" speed="10.30" length="5.57" shape="-12.26,50.16 -6.73,50.80"/>
    </edge>
    <edge id=":J0_22" function="internal">
        <lane id=":J0_22_0" index="0" speed="10.30" length="19.46" shape="-6.73,50.80 -5.40,50.96 -0.55,53.77 2.31,58.61 3.16,65.45"/>
    </edge>
    <edge id=":J0_15" function="internal">
        <lane id=":J0_15_0" index="0" speed="6.41" length="9.04" shape="-6.44,65.28 -6.75,62.81 -7.78,61.06 -9.53,60.04 -12.00,59.76"/>
    </edge>
    <edge id=":J0_16" function="internal">
        <lane id=":J0_16_0" index="0" speed="13.89" length="27.81" shape="-6.44,65.28 -5.90,37.47"/>
        <lane id=":J0_16_1" index="1" speed="13.89" length="27.81" shape="-3.24,65.34 -2.70,37.53"/>
        <lane id=":J0_16_2" index="2" speed="13.89" length="27.81" shape="-0.04,65.40 0.50,37.60"/>
    </edge>
    <edge id=":J0_19" function="internal">
        <lane id=":J0_19_0" index="0" speed="10.53" length="5.15" shape="-0.04,65.40 0.77,60.31"/>
    </edge>
    <edge id=":J0_23" function="internal">
        <lane id=":J0_23_0" index="0" speed="10.53" length="19.91" shape="0.77,60.31 1.05,58.57 4.01,53.70 8.86,50.79 15.58,49.85"/>
    </edge>
    <edge id=":J5_0" function="internal">
        <lane id=":J5_0_0" index="0" speed="6.77" length="9.70" shape="140.94,59.89 138.27,60.26 136.35,61.37 135.18,63.22 134.76,65.79"/>
    </edge>
    <edge id=":J5_1" function="internal">
        <lane id=":J5_1_0" index="0" speed="13.89" length="27.68" shape="140.94,59.89 113.24,59.88"/>
        <lane id=":J5_1_1" index="1" speed="13.89" length="27.68" shape="140.93,56.69 113.25,56.68"/>
        <lane id=":J5_1_2" index="2" speed="13.89" length="27.68" shape="140.92,53.49 113.26,53.48"/>
    </edge>
    <edge id=":J5_4" function="internal">
        <lane id=":J5_4_0" index="0" speed="10.32" length="5.14" shape="140.92,53.49 135.83,52.78"/>
    </edge>
    <edge id=":J5_20" function="internal">
        <lane id=":J5_20_0" index="0" speed="10.32" length="19.75" shape="135.83,52.78 134.13,52.54 129.35,49.64 126.57,44.79 125.79,37.98"/>
    </edge>
    <edge id=":J5_5" function="internal">
        <lane id=":J5_5_0" index="0" speed="6.44" length="9.03" shape="135.39,38.26 135.67,40.73 136.68,42.49 138.42,43.54 140.88,43.89"/>
    </edge>
    <edge id=":J5_6" function="internal">
        <lane id=":J5_6_0" index="0" speed="13.89" length="27.58" shape="135.39,38.26 134.76,65.79"/>
        <lane id=":J5_6_1" index="1" speed="13.89" length="27.58" shape="132.19,38.16 131.56,65.74"/>
        <lane id=":J5_6_2" index="2" speed="13.89" length="27.58" shape="128.99,38.07 128.36,65.68"/>
    </edge>
    <edge id=":J5_9" function="internal">
        <lane id=":J5_9_0" index="0" speed="10.55" length="4.89" shape="128.99,38.07 128.17,42.89"/>
    </edge>
    <edge id=":J5_21" function="internal">
        <lane id=":J5_21_0" index="0" speed="10.55" length="20.08" shape="128.17,42.89 127.84,44.84 124.84,49.66 119.98,52.54 113.26,53.48"/>
    </edge>
    <edge id=":J5_10" function="internal">
        <lane id=":J5_10_0" index="0" speed="6.80" length="9.76" shape="113.31,43.88 115.90,43.51 117.79,42.37 118.95,40.47 119.40,37.79"/>
    </edge>
    <edge id=":J5_11" function="internal">
        <lane id=":J5_11_0" index="0" speed="13.89" length="27.60" shape="113.31,43.88 140.88,43.89"/>
        <lane id=":J5_11_1" index="1" speed="13.89" length="27.60" shape="113.29,47.08 140.89,47.09"/>
        <lane id=":J5_11_2" index="2" speed="13.89" length="27.60" shape="113.28,50.28 140.90,50.29"/>
    </edge>
    <edge id=":J5_14" function="internal">
        <lane id=":J5_14_0" index="0" speed="10.35" length="4.87" shape="113.28,50.28 118.09,50.99"/>
    </edge>
    <edge id=":J5_22" function="internal">
        <lane id=":J5_22_0" index="0" speed="10.35" length="19.79" shape="118.09,50.99 119.97,51.27 124.72,54.16 127.51,58.97 128.36,65.68"/>
    </edge>
    <edge id=":J5_15" function="internal">
        <lane id=":J5_15_0" index="0" speed="6.48" length="9.03" shape="118.76,65.52 118.45,63.06 117.43,61.30 115.69,60.24 113.24,59.88"/>
    </edge>
    <edge id=":J5_16" function="internal">
        <lane id=":J5_16_0" index="0" speed="13.89" length="27.70" shape="118.76,65.52 119.40,37.79"/>
        <lane id=":J5_16_1" index="1" speed="13.89" length="27.70" shape="121.96,65.58 122.59,37.89"/>
        <lane id=":J5_16_2" index="2" speed="13.89" length="27.70" shape="125.16,65.63 125.79,37.98"/>
    </edge>
    <edge id=":J5_19" function="internal">
        <lane id=":J5_19_0" index="0" speed="10.53" length="5.18" shape="125.16,65.63 125.99,60.51"/>
    </edge>
    <edge id=":J5_23" function="internal">
        <lane id=":J5_23_0" index="0" speed="10.53" length="19.77" shape="125.99,60.51 126.24,58.94 129.22,54.15 134.11,51.27 140.90,50.29"/>
    </edge>

    <edge id="-E0" from="J5" to="J0" priority="-1">
        <lane id="-E0_0" index="0" speed="13.89" length="97.70" shape="113.24,59.88 15.54,59.45"/>
        <lane id="-E0_1" index="1" speed="13.89" length="97.70" shape="113.25,56.68 15.56,56.25"/>
        <lane id="-E0_2" index="2" speed="13.89" length="97.70" shape="113.26,53.48 15.57,53.05"/>
    </edge>
    <edge id="-E1" from="J0" to="J1" priority="-1">
        <lane id="-E1_0" index="0" speed="13.89" length="50.14" shape="9.56,65.57 8.64,115.70"/>
        <lane id="-E1_1" index="1" speed="13.89" length="50.14" shape="6.36,65.51 5.44,115.64"/>
        <lane id="-E1_2" index="2" speed="13.89" length="50.14" shape="3.16,65.45 2.24,115.58"/>
    </edge>
    <edge id="-E3" from="J0" to="J3" priority="-1">
        <lane id="-E3_0" index="0" speed="13.89" length="63.76" shape="-12.00,59.76 -75.74,61.45"/>
        <lane id="-E3_1" index="1" speed="13.89" length="63.76" shape="-12.09,56.56 -75.82,58.25"/>
        <lane id="-E3_2" index="2" speed="13.89" length="63.76" shape="-12.17,53.36 -75.91,55.05"/>
    </edge>
    <edge id="-E4" from="J0" to="J4" priority="-1">
        <lane id="-E4_0" index="0" speed="13.89" length="46.71" shape="-5.90,37.47 -4.94,-9.23"/>
        <lane id="-E4_1" index="1" speed="13.89" length="46.71" shape="-2.70,37.53 -1.74,-9.17"/>
        <lane id="-E4_2" index="2" speed="13.89" length="46.71" shape="0.50,37.60 1.46,-9.10"/>
    </edge>
    <edge id="-E5" from="J5" to="J7" priority="-1">
        <lane id="-E5_0" index="0" speed="13.89" length="44.59" shape="119.40,37.79 120.68,-6.78"/>
        <lane id="-E5_1" index="1" speed="13.89" length="44.59" shape="122.59,37.89 123.88,-6.69"/>
        <lane id="-E5_2" index="2" speed="13.89" length="44.59" shape="125.79,37.98 127.08,-6.60"/>
    </edge>
    <edge id="-E6" from="J5" to="J8" priority="-1">
        <lane id="-E6_0" index="0" speed="13.89" length="72.63" shape="140.88,43.89 213.51,43.60"/>
        <lane id="-E6_1" index="1" speed="13.89" length="72.63" shape="140.89,47.09 213.52,46.80"/>
        <lane id="-E6_2" index="2" speed="13.89" length="72.63" shape="140.90,50.29 213.53,50.00"/>
    </edge>
    <edge id="-E7" from="J5" to="J9" priority="-1">
        <lane id="-E7_0" index="0" speed="13.89" length="47.48" shape="134.76,65.79 133.97,113.26"/>
        <lane id="-E7_1" index="1" speed="13.89" length="47.48" shape="131.56,65.74 130.77,113.21"/>
        <lane id="-E7_2" index="2" speed="13.89" length="47.48" shape="128.36,65.68 127.57,113.16"/>
    </edge>
    <edge id="E0" from="J0" to="J5" priority="-1">
        <lane id="E0_0" index="0" speed="13.89" length="97.70" shape="15.61,43.45 113.31,43.88"/>
        <lane id="E0_1" index="1" speed="13.89" length="97.70" shape="15.60,46.65 113.29,47.08"/>
        <lane id="E0_2" index="2" speed="13.89" length="97.70" shape="15.58,49.85 113.28,50.28"/>
    </edge>
    <edge id="E1" from="J1" to="J0" priority="-1">
        <lane id="E1_0" index="0" speed="13.89" length="50.14" shape="-7.36,115.41 -6.44,65.28"/>
        <lane id="E1_1" index="1" speed="13.89" length="50.14" shape="-4.16,115.47 -3.24,65.34"/>
        <lane id="E1_2" index="2" speed="13.89" length="50.14" shape="-0.96,115.52 -0.04,65.40"/>
    </edge>
    <edge id="E3" from="J3" to="J0" priority="-1">
        <lane id="E3_0" index="0" speed="13.89" length="63.76" shape="-76.16,45.46 -12.43,43.76"/>
        <lane id="E3_1" index="1" speed="13.89" length="63.76" shape="-76.08,48.66 -12.34,46.96"/>
        <lane id="E3_2" index="2" speed="13.89" length="63.76" shape="-75.99,51.86 -12.26,50.16"/>
    </edge>
    <edge id="E4" from="J4" to="J0" priority="-1">
        <lane id="E4_0" index="0" speed="13.89" length="46.71" shape="11.06,-8.91 10.10,37.80"/>
        <lane id="E4_1" index="1" speed="13.89" length="46.71" shape="7.86,-8.97 6.90,37.73"/>
        <lane id="E4_2" index="2" speed="13.89" length="46.71" shape="4.66,-9.04 3.70,37.67"/>
    </edge>
    <edge id="E5" from="J7" to="J5" priority="-1">
        <lane id="E5_0" index="0" speed="13.89" length="44.59" shape="136.68,-6.32 135.39,38.26"/>
        <lane id="E5_1" index="1" speed="13.89" length="44.59" shape="133.48,-6.41 132.19,38.16"/>
        <lane id="E5_2" index="2" speed="13.89" length="44.59" shape="130.28,-6.50 128.99,38.07"/>
    </edge>
    <edge id="E6" from="J8" to="J5" priority="-1">
        <lane id="E6_0" index="0" speed="13.89" length="72.63" shape="213.57,59.60 140.94,59.89"/>
        <lane id="E6_1" index="1" speed="13.89" length="72.63" shape="213.56,56.40 140.93,56.69"/>
        <lane id="E6_2" index="2" speed="13.89" length="72.63" shape="213.55,53.20 140.92,53.49"/>
    </edge>
    <edge id="E7" from="J9" to="J5" priority="-1">
        <lane id="E7_0" index="0" speed="13.89" length="47.48" shape="117.97,113.00 118.76,65.52"/>
        <lane id="E7_1" index="1" speed="13.89" length="47.48" shape="121.17,113.05 121.96,65.58"/>
        <lane id="E7_2" index="2" speed="13.89" length="47.48" shape="124.37,113.10 125.16,65.63"/>
    </edge>

    <tlLogic id="J0" type="static" programID="0" offset="0">
        <phase duration="31" state="GGGggrrrrrGGGggrrrrr"/>
        <phase duration="5"  state="yyyggrrrrryyyggrrrrr"/>
        <phase duration="6"  state="rrrGGrrrrrrrrGGrrrrr"/>
        <phase duration="5"  state="rrryyrrrrrrrryyrrrrr"/>
        <phase duration="3"  state="yyyyyrrrrryyyyyrrrrr"/>
        <phase duration="31" state="rrrrrGGGggrrrrrGGGgg"/>
        <phase duration="5"  state="rrrrryyyggrrrrryyygg"/>
        <phase duration="6"  state="rrrrrrrrGGrrrrrrrrGG"/>
        <phase duration="5"  state="rrrrrrrryyrrrrrrrryy"/>
        <phase duration="3"  state="rrrrryyyyyrrrrryyyyy"/>
    </tlLogic>
    <tlLogic id="J5" type="static" programID="0" offset="0">
        <phase duration="31" state="GGGggrrrrrGGGggrrrrr"/>
        <phase duration="5"  state="yyyggrrrrryyyggrrrrr"/>
        <phase duration="6"  state="rrrGGrrrrrrrrGGrrrrr"/>
        <phase duration="5"  state="rrryyrrrrrrrryyrrrrr"/>
        <phase duration="3"  state="yyyyyrrrrryyyyyrrrrr"/>
        <phase duration="31" state="rrrrrGGGggrrrrrGGGgg"/>
        <phase duration="5"  state="rrrrryyyggrrrrryyygg"/>
        <phase duration="6"  state="rrrrrrrrGGrrrrrrrrGG"/>
        <phase duration="5"  state="rrrrrrrryyrrrrrrrryy"/>
        <phase duration="3"  state="rrrrryyyyyrrrrryyyyy"/>
    </tlLogic>

    <junction id="J0" type="traffic_light" x="1.82" y="51.39" incLanes="-E0_0 -E0_1 -E0_2 E4_0 E4_1 E4_2 E3_0 E3_1 E3_2 E1_0 E1_1 E1_2" intLanes=":J0_0_0 :J0_1_0 :J0_1_1 :J0_1_2 :J0_20_0 :J0_5_0 :J0_6_0 :J0_6_1 :J0_6_2 :J0_21_0 :J0_10_0 :J0_11_0 :J0_11_1 :J0_11_2 :J0_22_0 :J0_15_0 :J0_16_0 :J0_16_1 :J0_16_2 :J0_23_0" shape="15.53,61.05 15.62,41.85 13.41,41.39 12.64,40.83 12.10,40.05 11.79,39.05 11.70,37.83 -7.49,37.44 -8.09,40.00 -8.79,40.92 -9.75,41.58 -10.98,42.00 -12.47,42.16 -11.96,61.36 -9.75,61.74 -8.98,62.28 -8.44,63.04 -8.12,64.03 -8.04,65.25 11.16,65.60 11.68,63.06 12.30,62.18 13.14,61.54 14.22,61.17">
        <request index="0"  response="00000000000111000000" foes="00000000000111000000" cont="0"/>
        <request index="1"  response="11111000001111000000" foes="11111100001111000000" cont="0"/>
        <request index="2"  response="11111000001111000000" foes="11111100001111000000" cont="0"/>
        <request index="3"  response="11111000001111000000" foes="11111100001111000000" cont="0"/>
        <request index="4"  response="11110011101111000000" foes="11110011101111000000" cont="1"/>
        <request index="5"  response="00000000000000000000" foes="00000011100000000000" cont="0"/>
        <request index="6"  response="00000100000000010000" foes="10000111100000011111" cont="0"/>
        <request index="7"  response="00000100000000010000" foes="10000111100000011111" cont="0"/>
        <request index="8"  response="00000100000000010000" foes="10000111100000011111" cont="0"/>
        <request index="9"  response="01110100000000010000" foes="01110111100000011110" cont="1"/>
        <request index="10" response="01110000000000000000" foes="01110000000000000000" cont="0"/>
        <request index="11" response="11110000001111100000" foes="11110000001111110000" cont="0"/>
        <request index="12" response="11110000001111100000" foes="11110000001111110000" cont="0"/>
        <request index="13" response="11110000001111100000" foes="11110000001111110000" cont="0"/>
        <request index="14" response="11110000001111001110" foes="11110000001111001110" cont="1"/>
        <request index="15" response="00000000000000000000" foes="00000000000000001110" cont="0"/>
        <request index="16" response="00000100000000010000" foes="00000111111000011110" cont="0"/>
        <request index="17" response="00000100000000010000" foes="00000111111000011110" cont="0"/>
        <request index="18" response="00000100000000010000" foes="00000111111000011110" cont="0"/>
        <request index="19" response="00000100000111010000" foes="00000111100111011110" cont="1"/>
    </junction>
    <junction id="J1" type="dead_end" x="0.64" y="115.55" incLanes="-E1_0 -E1_1 -E1_2" intLanes="" shape="0.64,115.55 10.24,115.73 0.64,115.55"/>
    <junction id="J3" type="dead_end" x="-75.95" y="53.46" incLanes="-E3_0 -E3_1 -E3_2" intLanes="" shape="-75.95,53.46 -75.70,63.05 -75.95,53.46"/>
    <junction id="J4" type="dead_end" x="3.06" y="-9.07" incLanes="-E4_0 -E4_1 -E4_2" intLanes="" shape="3.06,-9.07 -6.54,-9.27 3.06,-9.07"/>
    <junction id="J5" type="traffic_light" x="126.99" y="51.94" incLanes="E6_0 E6_1 E6_2 E5_0 E5_1 E5_2 E0_0 E0_1 E0_2 E7_0 E7_1 E7_2" intLanes=":J5_0_0 :J5_1_0 :J5_1_1 :J5_1_2 :J5_20_0 :J5_5_0 :J5_6_0 :J5_6_1 :J5_6_2 :J5_21_0 :J5_10_0 :J5_11_0 :J5_11_1 :J5_11_2 :J5_22_0 :J5_15_0 :J5_16_0 :J5_16_1 :J5_16_2 :J5_23_0" shape="140.95,61.49 140.87,42.29 138.66,41.85 137.90,41.30 137.37,40.52 137.06,39.52 136.99,38.30 117.80,37.75 117.24,40.27 116.61,41.16 115.75,41.78 114.65,42.16 113.31,42.28 113.23,61.48 115.44,61.93 116.21,62.49 116.76,63.27 117.07,64.27 117.16,65.50 136.36,65.82 136.90,63.42 137.54,62.58 138.43,61.97 139.57,61.61">
        <request index="0"  response="00000000000000000000" foes="00000000000111000000" cont="0"/>
        <request index="1"  response="10000000001000000000" foes="11111100001111000000" cont="0"/>
        <request index="2"  response="10000000001000000000" foes="11111100001111000000" cont="0"/>
        <request index="3"  response="10000000001000000000" foes="11111100001111000000" cont="0"/>
        <request index="4"  response="10000011101000000000" foes="11110011101111000000" cont="1"/>
        <request index="5"  response="00000011100000000000" foes="00000011100000000000" cont="0"/>
        <request index="6"  response="00000111100000011111" foes="10000111100000011111" cont="0"/>
        <request index="7"  response="00000111100000011111" foes="10000111100000011111" cont="0"/>
        <request index="8"  response="00000111100000011111" foes="10000111100000011111" cont="0"/>
        <request index="9"  response="01110111100000011110" foes="01110111100000011110" cont="1"/>
        <request index="10" response="00000000000000000000" foes="01110000000000000000" cont="0"/>
        <request index="11" response="10000000001000000000" foes="11110000001111110000" cont="0"/>
        <request index="12" response="10000000001000000000" foes="11110000001111110000" cont="0"/>
        <request index="13" response="10000000001000000000" foes="11110000001111110000" cont="0"/>
        <request index="14" response="10000000001000001110" foes="11110000001111001110" cont="1"/>
        <request index="15" response="00000000000000001110" foes="00000000000000001110" cont="0"/>
        <request index="16" response="00000111110000011110" foes="00000111111000011110" cont="0"/>
        <request index="17" response="00000111110000011110" foes="00000111111000011110" cont="0"/>
        <request index="18" response="00000111110000011110" foes="00000111111000011110" cont="0"/>
        <request index="19" response="00000111100111011110" foes="00000111100111011110" cont="1"/>
    </junction>
    <junction id="J7" type="dead_end" x="128.68" y="-6.55" incLanes="-E5_0 -E5_1 -E5_2" intLanes="" shape="128.68,-6.55 119.08,-6.83 128.68,-6.55"/>
    <junction id="J8" type="dead_end" x="213.54" y="51.60" incLanes="-E6_0 -E6_1 -E6_2" intLanes="" shape="213.54,51.60 213.50,42.00 213.54,51.60"/>
    <junction id="J9" type="dead_end" x="125.97" y="113.13" incLanes="-E7_0 -E7_1 -E7_2" intLanes="" shape="125.97,113.13 135.57,113.29 125.97,113.13"/>

    <junction id=":J0_20_0" type="internal" x="11.10" y="52.39" incLanes=":J0_4_0 E3_0 E3_1 E3_2" intLanes=":J0_6_0 :J0_6_1 :J0_6_2 :J0_9_0 :J0_10_0 :J0_11_0 :J0_11_1 :J0_11_2 :J0_16_0 :J0_16_1 :J0_16_2 :J0_19_0"/>
    <junction id=":J0_21_0" type="internal" x="2.90" y="42.53" incLanes=":J0_9_0 E1_0 E1_1 E1_2" intLanes=":J0_1_0 :J0_1_1 :J0_1_2 :J0_4_0 :J0_11_0 :J0_11_1 :J0_11_2 :J0_14_0 :J0_15_0 :J0_16_0 :J0_16_1 :J0_16_2"/>
    <junction id=":J0_22_0" type="internal" x="-6.73" y="50.80" incLanes=":J0_14_0 -E0_0 -E0_1 -E0_2" intLanes=":J0_0_0 :J0_1_0 :J0_1_1 :J0_1_2 :J0_6_0 :J0_6_1 :J0_6_2 :J0_9_0 :J0_16_0 :J0_16_1 :J0_16_2 :J0_19_0"/>
    <junction id=":J0_23_0" type="internal" x="0.77" y="60.31" incLanes=":J0_19_0 E4_0 E4_1 E4_2" intLanes=":J0_1_0 :J0_1_1 :J0_1_2 :J0_4_0 :J0_5_0 :J0_6_0 :J0_6_1 :J0_6_2 :J0_11_0 :J0_11_1 :J0_11_2 :J0_14_0"/>
    <junction id=":J5_20_0" type="internal" x="135.83" y="52.78" incLanes=":J5_4_0 E0_0 E0_1 E0_2" intLanes=":J5_6_0 :J5_6_1 :J5_6_2 :J5_9_0 :J5_10_0 :J5_11_0 :J5_11_1 :J5_11_2 :J5_16_0 :J5_16_1 :J5_16_2 :J5_19_0"/>
    <junction id=":J5_21_0" type="internal" x="128.17" y="42.89" incLanes=":J5_9_0 E7_0 E7_1 E7_2" intLanes=":J5_1_0 :J5_1_1 :J5_1_2 :J5_4_0 :J5_11_0 :J5_11_1 :J5_11_2 :J5_14_0 :J5_15_0 :J5_16_0 :J5_16_1 :J5_16_2"/>
    <junction id=":J5_22_0" type="internal" x="118.09" y="50.99" incLanes=":J5_14_0 E6_0 E6_1 E6_2" intLanes=":J5_0_0 :J5_1_0 :J5_1_1 :J5_1_2 :J5_6_0 :J5_6_1 :J5_6_2 :J5_9_0 :J5_16_0 :J5_16_1 :J5_16_2 :J5_19_0"/>
    <junction id=":J5_23_0" type="internal" x="125.99" y="60.51" incLanes=":J5_19_0 E5_0 E5_1 E5_2" intLanes=":J5_1_0 :J5_1_1 :J5_1_2 :J5_4_0 :J5_5_0 :J5_6_0 :J5_6_1 :J5_6_2 :J5_11_0 :J5_11_1 :J5_11_2 :J5_14_0"/>

    <connection from="-E0" to="-E1" fromLane="0" toLane="0" via=":J0_0_0" tl="J0" linkIndex="0" dir="r" state="o"/>
    <connection from="-E0" to="-E3" fromLane="0" toLane="0" via=":J0_1_0" tl="J0" linkIndex="1" dir="s" state="o"/>
    <connection from="-E0" to="-E3" fromLane="1" toLane="1" via=":J0_1_1" tl="J0" linkIndex="2" dir="s" state="o"/>
    <connection from="-E0" to="-E3" fromLane="2" toLane="2" via=":J0_1_2" tl="J0" linkIndex="3" dir="s" state="o"/>
    <connection from="-E0" to="-E4" fromLane="2" toLane="2" via=":J0_4_0" tl="J0" linkIndex="4" dir="l" state="o"/>
    <connection from="E0" to="-E5" fromLane="0" toLane="0" via=":J5_10_0" tl="J5" linkIndex="10" dir="r" state="O"/>
    <connection from="E0" to="-E6" fromLane="0" toLane="0" via=":J5_11_0" tl="J5" linkIndex="11" dir="s" state="O"/>
    <connection from="E0" to="-E6" fromLane="1" toLane="1" via=":J5_11_1" tl="J5" linkIndex="12" dir="s" state="O"/>
    <connection from="E0" to="-E6" fromLane="2" toLane="2" via=":J5_11_2" tl="J5" linkIndex="13" dir="s" state="O"/>
    <connection from="E0" to="-E7" fromLane="2" toLane="2" via=":J5_14_0" tl="J5" linkIndex="14" dir="l" state="o"/>
    <connection from="E1" to="-E3" fromLane="0" toLane="0" via=":J0_15_0" tl="J0" linkIndex="15" dir="r" state="O"/>
    <connection from="E1" to="-E4" fromLane="0" toLane="0" via=":J0_16_0" tl="J0" linkIndex="16" dir="s" state="O"/>
    <connection from="E1" to="-E4" fromLane="1" toLane="1" via=":J0_16_1" tl="J0" linkIndex="17" dir="s" state="O"/>
    <connection from="E1" to="-E4" fromLane="2" toLane="2" via=":J0_16_2" tl="J0" linkIndex="18" dir="s" state="O"/>
    <connection from="E1" to="E0" fromLane="2" toLane="2" via=":J0_19_0" tl="J0" linkIndex="19" dir="l" state="o"/>
    <connection from="E3" to="-E4" fromLane="0" toLane="0" via=":J0_10_0" tl="J0" linkIndex="10" dir="r" state="o"/>
    <connection from="E3" to="E0" fromLane="0" toLane="0" via=":J0_11_0" tl="J0" linkIndex="11" dir="s" state="o"/>
    <connection from="E3" to="E0" fromLane="1" toLane="1" via=":J0_11_1" tl="J0" linkIndex="12" dir="s" state="o"/>
    <connection from="E3" to="E0" fromLane="2" toLane="2" via=":J0_11_2" tl="J0" linkIndex="13" dir="s" state="o"/>
    <connection from="E3" to="-E1" fromLane="2" toLane="2" via=":J0_14_0" tl="J0" linkIndex="14" dir="l" state="o"/>
    <connection from="E4" to="E0" fromLane="0" toLane="0" via=":J0_5_0" tl="J0" linkIndex="5" dir="r" state="O"/>
    <connection from="E4" to="-E1" fromLane="0" toLane="0" via=":J0_6_0" tl="J0" linkIndex="6" dir="s" state="O"/>
    <connection from="E4" to="-E1" fromLane="1" toLane="1" via=":J0_6_1" tl="J0" linkIndex="7" dir="s" state="O"/>
    <connection from="E4" to="-E1" fromLane="2" toLane="2" via=":J0_6_2" tl="J0" linkIndex="8" dir="s" state="O"/>
    <connection from="E4" to="-E3" fromLane="2" toLane="2" via=":J0_9_0" tl="J0" linkIndex="9" dir="l" state="o"/>
    <connection from="E5" to="-E6" fromLane="0" toLane="0" via=":J5_5_0" tl="J5" linkIndex="5" dir="r" state="o"/>
    <connection from="E5" to="-E7" fromLane="0" toLane="0" via=":J5_6_0" tl="J5" linkIndex="6" dir="s" state="o"/>
    <connection from="E5" to="-E7" fromLane="1" toLane="1" via=":J5_6_1" tl="J5" linkIndex="7" dir="s" state="o"/>
    <connection from="E5" to="-E7" fromLane="2" toLane="2" via=":J5_6_2" tl="J5" linkIndex="8" dir="s" state="o"/>
    <connection from="E5" to="-E0" fromLane="2" toLane="2" via=":J5_9_0" tl="J5" linkIndex="9" dir="l" state="o"/>
    <connection from="E6" to="-E7" fromLane="0" toLane="0" via=":J5_0_0" tl="J5" linkIndex="0" dir="r" state="O"/>
    <connection from="E6" to="-E0" fromLane="0" toLane="0" via=":J5_1_0" tl="J5" linkIndex="1" dir="s" state="O"/>
    <connection from="E6" to="-E0" fromLane="1" toLane="1" via=":J5_1_1" tl="J5" linkIndex="2" dir="s" state="O"/>
    <connection from="E6" to="-E0" fromLane="2" toLane="2" via=":J5_1_2" tl="J5" linkIndex="3" dir="s" state="O"/>
    <connection from="E6" to="-E5" fromLane="2" toLane="2" via=":J5_4_0" tl="J5" linkIndex="4" dir="l" state="o"/>
    <connection from="E7" to="-E0" fromLane="0" toLane="0" via=":J5_15_0" tl="J5" linkIndex="15" dir="r" state="o"/>
    <connection from="E7" to="-E5" fromLane="0" toLane="0" via=":J5_16_0" tl="J5" linkIndex="16" dir="s" state="o"/>
    <connection from="E7" to="-E5" fromLane="1" toLane="1" via=":J5_16_1" tl="J5" linkIndex="17" dir="s" state="o"/>
    <connection from="E7" to="-E5" fromLane="2" toLane="2" via=":J5_16_2" tl="J5" linkIndex="18" dir="s" state="o"/>
    <connection from="E7" to="-E6" fromLane="2" toLane="2" via=":J5_19_0" tl="J5" linkIndex="19" dir="l" state="o"/>

    <connection from=":J0_0" to="-E1" fromLane="0" toLane="0" dir="r" state="M"/>
    <connection from=":J0_1" to="-E3" fromLane="0" toLane="0" dir="s" state="M"/>
    <connection from=":J0_1" to="-E3" fromLane="1" toLane="1" dir="s" state="M"/>
    <connection from=":J0_1" to="-E3" fromLane="2" toLane="2" dir="s" state="M"/>
    <connection from=":J0_4" to="-E4" fromLane="0" toLane="2" via=":J0_20_0" dir="l" state="m"/>
    <connection from=":J0_20" to="-E4" fromLane="0" toLane="2" dir="l" state="M"/>
    <connection from=":J0_5" to="E0" fromLane="0" toLane="0" dir="r" state="M"/>
    <connection from=":J0_6" to="-E1" fromLane="0" toLane="0" dir="s" state="M"/>
    <connection from=":J0_6" to="-E1" fromLane="1" toLane="1" dir="s" state="M"/>
    <connection from=":J0_6" to="-E1" fromLane="2" toLane="2" dir="s" state="M"/>
    <connection from=":J0_9" to="-E3" fromLane="0" toLane="2" via=":J0_21_0" dir="l" state="m"/>
    <connection from=":J0_21" to="-E3" fromLane="0" toLane="2" dir="l" state="M"/>
    <connection from=":J0_10" to="-E4" fromLane="0" toLane="0" dir="r" state="M"/>
    <connection from=":J0_11" to="E0" fromLane="0" toLane="0" dir="s" state="M"/>
    <connection from=":J0_11" to="E0" fromLane="1" toLane="1" dir="s" state="M"/>
    <connection from=":J0_11" to="E0" fromLane="2" toLane="2" dir="s" state="M"/>
    <connection from=":J0_14" to="-E1" fromLane="0" toLane="2" via=":J0_22_0" dir="l" state="m"/>
    <connection from=":J0_22" to="-E1" fromLane="0" toLane="2" dir="l" state="M"/>
    <connection from=":J0_15" to="-E3" fromLane="0" toLane="0" dir="r" state="M"/>
    <connection from=":J0_16" to="-E4" fromLane="0" toLane="0" dir="s" state="M"/>
    <connection from=":J0_16" to="-E4" fromLane="1" toLane="1" dir="s" state="M"/>
    <connection from=":J0_16" to="-E4" fromLane="2" toLane="2" dir="s" state="M"/>
    <connection from=":J0_19" to="E0" fromLane="0" toLane="2" via=":J0_23_0" dir="l" state="m"/>
    <connection from=":J0_23" to="E0" fromLane="0" toLane="2" dir="l" state="M"/>
    <connection from=":J5_0" to="-E7" fromLane="0" toLane="0" dir="r" state="M"/>